Circuit: *** SPICE deck for cell AND2{lay} from library Project

Ignoring BSIM parameter XL
Ignoring BSIM parameter XW
Ignoring BSIM parameter XL
Ignoring BSIM parameter XW
Ignoring BSIM parameter XL
Ignoring BSIM parameter XW
Ignoring BSIM parameter XL
Ignoring BSIM parameter XW
Direct Newton iteration for .op point succeeded.

Date: Sun Dec 14 19:30:15 2025
Total elapsed time: 0.098 seconds.

tnom = 27
temp = 27
method = modified trap
totiter = 2695
traniter = 2687
tranpoints = 1293
accept = 1219
rejected = 74
matrix size = 9
fillins = 0
solver = Normal
Matrix Compiler1: 404 bayt object code size  0.1/0.0/[0.0]
Matrix Compiler2: 731 bayt object code size  0.0/0.1/[0.0]


