Circuit: *** SPICE deck for cell AND2_1OUT{sch} from library Project

Ignoring BSIM parameter XL
Ignoring BSIM parameter XW
Ignoring BSIM parameter XL
Ignoring BSIM parameter XW
Ignoring BSIM parameter XL
Ignoring BSIM parameter XW
Ignoring BSIM parameter XL
Ignoring BSIM parameter XW
Warning: Pd = 0 is less than W.
Warning: Ps = 0 is less than W.
Warning: Pd = 0 is less than W.
Warning: Ps = 0 is less than W.
Warning: Pd = 0 is less than W.
Warning: Ps = 0 is less than W.
Warning: Pd = 0 is less than W.
Warning: Ps = 0 is less than W.
Direct Newton iteration for .op point succeeded.

Date: Mon Dec 15 20:37:34 2025
Total elapsed time: 0.234 seconds.

tnom = 27
temp = 27
method = modified trap
totiter = 2776
traniter = 2763
tranpoints = 1284
accept = 1220
rejected = 64
matrix size = 9
fillins = 0
solver = Normal
Matrix Compiler1: 404 bayt object code size  0.1/0.0/[0.0]
Matrix Compiler2: off  [0.1]/0.1/0.1


