Circuit: *** SPICE deck for cell Full_Adder{lay} from library Project

Ignoring BSIM parameter XL
Ignoring BSIM parameter XW
Ignoring BSIM parameter XL
Ignoring BSIM parameter XW
Ignoring BSIM parameter XL
Ignoring BSIM parameter XW
Ignoring BSIM parameter XL
Ignoring BSIM parameter XW
Ignoring BSIM parameter XL
Ignoring BSIM parameter XW
Ignoring BSIM parameter XL
Ignoring BSIM parameter XW
Ignoring BSIM parameter XL
Ignoring BSIM parameter XW
Ignoring BSIM parameter XL
Ignoring BSIM parameter XW
Ignoring BSIM parameter XL
Ignoring BSIM parameter XW
Ignoring BSIM parameter XL
Ignoring BSIM parameter XW
Ignoring BSIM parameter XL
Ignoring BSIM parameter XW
Ignoring BSIM parameter XL
Ignoring BSIM parameter XW
Direct Newton iteration for .op point succeeded.

Date: Tue Dec 16 01:03:59 2025
Total elapsed time: 0.087 seconds.

tnom = 27
temp = 27
method = modified trap
totiter = 3089
traniter = 3080
tranpoints = 1366
accept = 1264
rejected = 102
matrix size = 24
fillins = 0
solver = Normal
Thread vector: 16.1/11.6[2] 3.4/2.0[2] 0.7/0.7[1] 0.1/0.6[1]  2592/500
Matrix Compiler1: 1,48 KB object code size  0.3/0.1/[0.1]
Matrix Compiler2: 2,55 KB object code size  0.1/0.2/[0.1]


