Circuit: *** SPICE deck for cell Full_Adder_Multiplier{lay} from library Project

Ignoring BSIM parameter XL
Ignoring BSIM parameter XW
Ignoring BSIM parameter XL
Ignoring BSIM parameter XW
Ignoring BSIM parameter XL
Ignoring BSIM parameter XW
Ignoring BSIM parameter XL
Ignoring BSIM parameter XW
Ignoring BSIM parameter XL
Ignoring BSIM parameter XW
Ignoring BSIM parameter XL
Ignoring BSIM parameter XW
Ignoring BSIM parameter XL
Ignoring BSIM parameter XW
Ignoring BSIM parameter XL
Ignoring BSIM parameter XW
Direct Newton iteration for .op point succeeded.

Date: Tue Dec 16 18:20:55 2025
Total elapsed time: 0.090 seconds.

tnom = 27
temp = 27
method = modified trap
totiter = 3097
traniter = 3088
tranpoints = 1390
accept = 1290
rejected = 100
matrix size = 18
fillins = 0
solver = Normal
Matrix Compiler1: 1,13 KB object code size  0.2/0.1/[0.1]
Matrix Compiler2: 1,84 KB object code size  0.1/0.1/[0.1]


