Circuit: *** SPICE deck for cell Inverter{lay} from library Project

Ignoring BSIM parameter XL
Ignoring BSIM parameter XW
Ignoring BSIM parameter XL
Ignoring BSIM parameter XW
Direct Newton iteration for .op point succeeded.

Date: Sat Dec 13 16:26:12 2025
Total elapsed time: 0.163 seconds.

tnom = 27
temp = 27
method = modified trap
totiter = 2620
traniter = 2613
tranpoints = 1229
accept = 1167
rejected = 62
matrix size = 5
fillins = 0
solver = Normal
Matrix Compiler1: 132 bayt object code size  0.0/0.0/[0.0]
Matrix Compiler2:      28 opcodes  0.0/[0.0]/0.0


