Circuit: *** SPICE deck for cell Multiplier_Cell_Full{lay} from library Project

Ignoring BSIM parameter XL
Ignoring BSIM parameter XW
Ignoring BSIM parameter XL
Ignoring BSIM parameter XW
Ignoring BSIM parameter XL
Ignoring BSIM parameter XW
Ignoring BSIM parameter XL
Ignoring BSIM parameter XW
Ignoring BSIM parameter XL
Ignoring BSIM parameter XW
Ignoring BSIM parameter XL
Ignoring BSIM parameter XW
Ignoring BSIM parameter XL
Ignoring BSIM parameter XW
Ignoring BSIM parameter XL
Ignoring BSIM parameter XW
Ignoring BSIM parameter XL
Ignoring BSIM parameter XW
Ignoring BSIM parameter XL
Ignoring BSIM parameter XW
Ignoring BSIM parameter XL
Ignoring BSIM parameter XW
Ignoring BSIM parameter XL
Ignoring BSIM parameter XW
Ignoring BSIM parameter XL
Ignoring BSIM parameter XW
Ignoring BSIM parameter XL
Ignoring BSIM parameter XW
Direct Newton iteration for .op point succeeded.

Date: Wed Dec 17 00:58:17 2025
Total elapsed time: 0.125 seconds.

tnom = 27
temp = 27
method = modified trap
totiter = 5192
traniter = 5177
tranpoints = 2067
accept = 1768
rejected = 299
matrix size = 22
fillins = 0
solver = Normal
Thread vector: 15.7/13.1[2] 3.9/2.1[2] 0.8/0.7[2] 0.2/0.5[1]  2592/500
Matrix Compiler1: 1,33 KB object code size  0.3/0.1/[0.1]
Matrix Compiler2: 2,38 KB object code size  0.1/0.2/[0.1]


