Circuit: *** SPICE deck for cell MUX{lay} from library Project

Ignoring BSIM parameter XL
Ignoring BSIM parameter XW
Ignoring BSIM parameter XL
Ignoring BSIM parameter XW
Direct Newton iteration for .op point succeeded.

Date: Sat Dec 13 21:42:30 2025
Total elapsed time: 0.072 seconds.

tnom = 27
temp = 27
method = modified trap
totiter = 2633
traniter = 2624
tranpoints = 1211
accept = 1150
rejected = 61
matrix size = 11
fillins = 0
solver = Normal
Matrix Compiler1: 558 bayt object code size  0.1/0.1/[0.0]
Matrix Compiler2: 915 bayt object code size  0.1/0.1/[0.0]


