Circuit: *** SPICE deck for cell Nand2{sch} from library Project

Ignoring BSIM parameter XL
Ignoring BSIM parameter XW
Ignoring BSIM parameter XL
Ignoring BSIM parameter XW
Warning: Pd = 0 is less than W.
Warning: Ps = 0 is less than W.
Warning: Pd = 0 is less than W.
Warning: Ps = 0 is less than W.
Direct Newton iteration for .op point succeeded.

Date: Sun Dec 28 02:24:10 2025
Total elapsed time: 0.050 seconds.

tnom = 27
temp = 27
method = modified trap
totiter = 2805
traniter = 2797
tranpoints = 1263
accept = 1206
rejected = 57
matrix size = 8
fillins = 0
solver = Normal
Matrix Compiler1: 336 bayt object code size  0.1/0.0/[0.0]
Matrix Compiler2: 624 bayt object code size  0.1/0.1/[0.0]


