Circuit: *** SPICE deck for cell Or2_1Out{lay} from library Project

Ignoring BSIM parameter XL
Ignoring BSIM parameter XW
Ignoring BSIM parameter XL
Ignoring BSIM parameter XW
Ignoring BSIM parameter XL
Ignoring BSIM parameter XW
Ignoring BSIM parameter XL
Ignoring BSIM parameter XW
Direct Newton iteration for .op point succeeded.

Date: Thu Dec 18 15:18:23 2025
Total elapsed time: 0.070 seconds.

tnom = 27
temp = 27
method = modified trap
totiter = 2701
traniter = 2693
tranpoints = 1286
accept = 1219
rejected = 67
matrix size = 9
fillins = 0
solver = Normal
Matrix Compiler1: 368 bayt object code size  0.1/0.0/[0.0]
Matrix Compiler2: 787 bayt object code size  0.1/0.1/[0.0]


